Version 4
SHEET 1 880 680
SYMBOL OpAmps\\OP07 192 96 R0
SYMATTR InstName U1
SYMBOL res -48 64 R0
SYMATTR InstName R1
